*Heading
** Job name: UnitCell_00008 Model name: Model-1
** Generated by: Abaqus/CAE 6.14-2
*Preprint, echo=NO, model=NO, history=NO, contact=NO
**
** PARTS
**
*Part, name=BackRef
*Node
      1,           0., 0.00377974915, 0.0021822392
*Nset, nset=BackRef-RefPt_, internal
1, 
*End Part
**  
*Part, name=BottomRef
*Node
      1, 0.0021822392, 0.00377974915,           0.
*Nset, nset=BottomRef-RefPt_, internal
1, 
*End Part
**  
*Part, name=FrontRef
*Node
      1, 0.0043644784, 0.00377974915, 0.0021822392
*Nset, nset=FrontRef-RefPt_, internal
1, 
*End Part
**  
*Part, name=LeftRef
*Node
      1, 0.0021822392, 0.00755949831, 0.0021822392
*Nset, nset=LeftRef-RefPt_, internal
1, 
*End Part
**  
*Part, name=QuarterCell
*Node
      1, -0.00400949828, 0.0043644784,           0.
      2, -0.00504926918, 0.00185424939,           0.
      3, -0.00564057939, 0.00244555948,           0.
      4, -0.00564057939, 0.0043644784,           0.
      5, -0.00504926918, 0.00185424939, 0.0043644784
      6, -0.00564057939, 0.00244555948, 0.0043644784
      7, -0.00564057939, 0.0043644784, 0.0043644784
      8, -0.00400949828, 0.0043644784, 0.0043644784
      9, -0.00755949831, 0.000814478437,           0.
     10, -0.00755949831, 0.00244555948,           0.
     11, -0.00755949831, 0.000814478437, 0.0043644784
     12, -0.00755949831, 0.00244555948, 0.0043644784
     13, -0.00355000002,           0.,           0.
     14, -0.00251022913, 0.00251022913,           0.
     15, -0.00191891892, 0.00191891892,           0.
     16, -0.00191891892,           0.,           0.
     17, -0.00251022913, 0.00251022913, 0.0043644784
     18, -0.00191891892, 0.00191891892, 0.0043644784
     19, -0.00191891892,           0., 0.0043644784
     20, -0.00355000002,           0., 0.0043644784
** ... 24130 like lines cut
*Element, type=C3D8R
   1,   37,    1,   68,  895, 1235,  146, 1005, 7453
   2,   38,   37,  895,  896, 1236, 1235, 7453, 7454
   3,   39,   38,  896,  897, 1237, 1236, 7454, 7455
   4,   40,   39,  897,  898, 1238, 1237, 7455, 7456
   5,   41,   40,  898,  899, 1239, 1238, 7456, 7457
   6,   42,   41,  899,  900, 1240, 1239, 7457, 7458
   7,   43,   42,  900,  901, 1241, 1240, 7458, 7459
   8,   44,   43,  901,  902, 1242, 1241, 7459, 7460
   9,   45,   44,  902,  903, 1243, 1242, 7460, 7461
  10,   46,   45,  903,  904, 1244, 1243, 7461, 7462
  11,   47,   46,  904,  905, 1245, 1244, 7462, 7463
  12,    2,   47,  905,   48,  170, 1245, 7463, 1120
  13,  895,   68,   67,  906, 7453, 1005, 1006, 7464
  14,  896,  895,  906,  907, 7454, 7453, 7464, 7465
  15,  897,  896,  907,  908, 7455, 7454, 7465, 7466
  16,  898,  897,  908,  909, 7456, 7455, 7466, 7467
  17,  899,  898,  909,  910, 7457, 7456, 7467, 7468
  18,  900,  899,  910,  911, 7458, 7457, 7468, 7469
  19,  901,  900,  911,  912, 7459, 7458, 7469, 7470
  20,  902,  901,  912,  913, 7460, 7459, 7470, 7471
** ... 21772 like lines cut
*Nset, nset=Fiber
     1,     2,     3,     4,     5,     6,     7,     8,     9,    10,    11,    12,    13,    14,    15,    16
    17,    18,    19,    20,    21,    22,    23,    24,    25,    26,    27,    28,    37,    38,    39,    40
    41,    42,    43,    44,    45,    46,    47,    48,    49,    50,    51,    52,    53,    54,    55,    56
    57,    58,    59,    60,    61,    62,    63,    64,    65,    66,    67,    68,    69,    70,    71,    72
    73,    74,    75,    76,    77,    78,    79,    80,    81,    82,    83,    84,    85,    86,    87,    88
    89,    90,    91,    92,    93,    94,    95,    96,    97,    98,    99,   100,   101,   102,   103,   104
   105,   106,   107,   108,   109,   110,   111,   112,   113,   114,   115,   116,   117,   118,   119,   120
   121,   122,   123,   124,   125,   126,   127,   128,   129,   130,   131,   132,   133,   134,   135,   136
   137,   138,   139,   140,   141,   142,   143,   144,   145,   146,   147,   148,   149,   150,   151,   152
   153,   154,   155,   156,   157,   158,   159,   160,   161,   162,   163,   164,   165,   166,   167,   168
   169,   170,   171,   172,   173,   174,   175,   176,   177,   178,   179,   180,   181,   182,   183,   184
   185,   186,   187,   188,   189,   190,   191,   192,   193,   194,   195,   196,   197,   198,   199,   200
   201,   202,   203,   204,   205,   206,   207,   208,   209,   210,   211,   212,   213,   214,   215,   216
   217,   218,   219,   220,   221,   222,   223,   224,   225,   226,   227,   228,   229,   230,   231,   232
   233,   234,   235,   236,   237,   238,   239,   240,   241,   242,   243,   244,   245,   246,   247,   248
   249,   250,   251,   252,   253,   254,   255,   256,   257,   258,   259,   260,   261,   262,   263,   264
   265,   266,   267,   268,   269,   270,   271,   272,   273,   274,   275,   276,   277,   278,   279,   280
   281,   282,   283,   284,   285,   286,   287,   288,   289,   290,   291,   292,   293,   294,   295,   296
   297,   298,   299,   300,   301,   302,   303,   304,   305,   306,   307,   308,   309,   310,   311,   312
   313,   314,   315,   316,   317,   318,   319,   320,   321,   322,   323,   324,   325,   326,   327,   328
** ... 1096 like lines cut
*Elset, elset=Fiber, generate
     1,  15552,      1
*Nset, nset=Matrix
     1,     2,     5,     8,     9,    11,    13,    14,    17,    20,    27,    28,    29,    30,    31,    32
    33,    34,    35,    36,    37,    38,    39,    40,    41,    42,    43,    44,    45,    46,    47,    69
    70,    71,    72,    73,    74,    75,    76,    77,    78,    79,   124,   125,   126,   127,   128,   129
   130,   131,   132,   133,   134,   135,   136,   137,   138,   139,   140,   141,   142,   143,   144,   145
   146,   170,   171,   172,   173,   174,   175,   176,   177,   178,   179,   180,   181,   182,   183,   184
   185,   186,   187,   188,   189,   190,   191,   192,   193,   194,   195,   196,   197,   198,   199,   200
   201,   202,   203,   204,   205,   224,   225,   226,   227,   228,   229,   230,   231,   232,   233,   234
   235,   236,   278,   279,   280,   281,   282,   283,   284,   285,   286,   287,   288,   289,   290,   291
   292,   293,   294,   295,   296,   297,   298,   299,   300,   301,   302,   303,   304,   305,   306,   307
   308,   309,   310,   311,   333,   334,   335,   336,   337,   338,   339,   340,   341,   342,   343,   388
   389,   390,   391,   392,   393,   394,   395,   396,   397,   398,   399,   400,   401,   402,   403,   404
   405,   406,   407,   408,   409,   410,   434,   435,   436,   437,   438,   439,   440,   441,   442,   443
   444,   445,   446,   447,   448,   449,   450,   451,   452,   453,   454,   455,   456,   653,   654,   655
   656,   657,   658,   659,   660,   661,   662,   663,   664,   665,   671,   672,   673,   674,   675,   676
   677,   678,   679,   680,   681,   682,   683,   684,   685,   686,   687,   688,   689,   690,   691,   692
   693,   694,   695,   696,   697,   698,   699,   700,   701,   702,   703,   704,   705,   706,   707,   708
   709,   710,   711,   712,   713,   714,   715,   716,   717,   718,   719,   720,   721,   722,   723,   724
   725,   726,   727,   728,   729,   730,   731,   732,   733,   734,   735,   736,   737,   738,   739,   740
   741,   742,   743,   744,   745,   746,   747,   748,   749,   750,   751,   752,   753,   754,   755,   756
   757,   758,   759,   760,   761,   762,   763,   764,   765,   766,   767,   768,   769,   770,   771,   772
** ... 459 like lines cut
*Elset, elset=Matrix, generate
 15553,  21792,      1
*Orientation, name=Ori-1
1., 0., 0., 0., 1., 0.
2, -90.
** Section: FIBERSECTION
*Solid Section, elset=Fiber, orientation=Ori-1, material=FIBERMATERIAL
,
** Section: MATRIXSECTION
*Solid Section, elset=Matrix, material=MATRIXMATERIAL
,
*End Part
**  
*Part, name=RightRef
*Node
      1, 0.0021822392,           0., 0.0021822392
*Nset, nset=RightRef-RefPt_, internal
1, 
*End Part
**  
*Part, name=TopRef
*Node
      1, 0.0021822392, 0.00377974915, 0.0043644784
*Nset, nset=TopRef-RefPt_, internal
1, 
*End Part
**  
**
** ASSEMBLY
**
*Assembly, name=Assembly
**  
*Instance, name=QuarterCell-1, part=QuarterCell
          0.,           0., 0.00436447844228091
          0.,           0., 0.00436447844228091, -0.577350279552042, 0.577350279552042, -0.572985801109761, 119.999999109416
*End Instance
**  
*Instance, name=FrontRef-1, part=FrontRef
*End Instance
**  
*Instance, name=BackRef-1, part=BackRef
*End Instance
**  
*Instance, name=RightRef-1, part=RightRef
*End Instance
**  
*Instance, name=LeftRef-1, part=LeftRef
*End Instance
**  
*Instance, name=TopRef-1, part=TopRef
*End Instance
**  
*Instance, name=BottomRef-1, part=BottomRef
*End Instance
**  
*Nset, nset=BackPoint, instance=BackRef-1
 1,
*Nset, nset=BottomPoint, instance=BottomRef-1
 1,
*Nset, nset=Front, instance=QuarterCell-1
    5,    6,    7,    8,   11,   12,   17,   18,   19,   20,   23,   24,   26,   27,   32,   33
   34,   36,   69,   70,   71,   72,   73,   74,   75,   76,   77,   78,   79,   80,   81,   82
   83,   84,   85,   86,   87,   88,   89,   90,   91,   92,   93,   94,   95,   96,   97,   98
   99,  100,  224,  225,  226,  227,  228,  229,  230,  231,  232,  233,  234,  235,  236,  237
  238,  239,  240,  241,  242,  243,  244,  245,  246,  247,  248,  249,  250,  251,  252,  253
  254,  333,  334,  335,  336,  337,  338,  339,  340,  341,  342,  343,  344,  345,  346,  347
  348,  349,  350,  351,  352,  353,  354,  355,  356,  357,  358,  359,  360,  361,  362,  363
  364,  494,  495,  496,  497,  498,  499,  500,  501,  502,  503,  504,  505,  506,  507,  508
  509,  510,  511,  512,  513,  514,  515,  516,  517,  518,  519,  520,  521,  522,  523,  524
  525,  526,  527,  528,  529,  530,  601,  602,  603,  604,  605,  606,  607,  608,  609,  610
  611,  612,  613,  614,  615,  616,  617,  618,  619,  620,  621,  622,  623,  624,  648,  649
  650,  651,  652,  653,  654,  655,  656,  657,  658,  659,  660,  661,  662,  663,  664,  665
  808,  809,  810,  811,  812,  813,  814,  815,  816,  817,  818,  819,  820,  821,  822,  823
  824,  825,  826,  827,  828,  829,  830,  831,  832,  833,  834,  835,  836,  837,  838,  839
  879,  880,  881,  882,  883,  884,  885,  886,  887,  888,  889,  890,  891,  892,  893,  894
  950,  951,  952,  953,  954,  955,  956,  957,  958,  959,  960,  961,  962,  963,  964,  965
  966,  967,  968,  969,  970,  971,  972,  973,  974,  975,  976,  977,  978,  979,  980,  981
  982,  983,  984,  985,  986,  987,  988,  989,  990,  991,  992,  993,  994,  995,  996,  997
  998,  999, 1000, 1001, 1002, 1003, 1004, 1806, 1807, 1808, 1809, 1810, 1811, 1812, 1813, 1814
 1815, 1816, 1817, 1818, 1819, 1820, 1821, 1822, 1823, 1824, 1825, 1826, 1827, 1828, 1829, 1830
** ... 41 like lines cut
*Nset, nset=FrontPoint, instance=FrontRef-1
 1,
*Nset, nset=Left, instance=QuarterCell-1
    9,   10,   11,   12,   25,   26,   31,   34,  206,  207,  208,  209,  210,  237,  238,  239
  240,  241,  255,  256,  257,  258,  259,  260,  261,  262,  263,  264,  265,  266,  267,  268
  269,  270,  271,  272,  273,  274,  275,  276,  277,  278,  279,  280,  281,  282,  283,  284
  285,  286,  287,  288,  289,  290,  291,  292,  293,  294,  295,  296,  297,  298,  299,  300
  577,  578,  579,  580,  581,  582,  583,  584,  585,  586,  587,  601,  602,  603,  604,  605
  606,  607,  608,  609,  610,  611,  625,  626,  627,  628,  629,  630,  631,  632,  633,  634
  635,  636,  637,  638,  639,  640,  641,  642,  643,  644,  645,  646,  647,  731,  732,  733
  734,  762,  763,  764,  765,  766,  767,  768,  769,  770,  771,  772,  773,  774,  775,  776
  777,  778,  779,  780,  781,  782,  783,  784,  828,  829,  830,  831, 2469, 2470, 2471, 2472
 2473, 2474, 2475, 2476, 2477, 2478, 2479, 2480, 2481, 2482, 2483, 2484, 2485, 2486, 2487, 2488
 2489, 2490, 2491, 2492, 2493, 2494, 2495, 2496, 2497, 2498, 2499, 2500, 2501, 2502, 2503, 2504
 2505, 2506, 2507, 2508, 2509, 2510, 2511, 2512, 2513, 2514, 2515, 2516, 2517, 2518, 2519, 2520
 2521, 2522, 2523, 2524, 2525, 2526, 2527, 2528, 2529, 2530, 2531, 2532, 2533, 2534, 2535, 2536
 2537, 2538, 2539, 2540, 2541, 2542, 2543, 2544, 2545, 2546, 2547, 2548, 2549, 2550, 2551, 2552
 2553, 2554, 2555, 2556, 2557, 2558, 2559, 2560, 2561, 2562, 2563, 2564, 2565, 2566, 2567, 2568
 2569, 2570, 2571, 2572, 2573, 2574, 2575, 2576, 2577, 2578, 2579, 2580, 2581, 2582, 2583, 4853
 4854, 4855, 4856, 4857, 4858, 4859, 4860, 4861, 4862, 4863, 4864, 4865, 4866, 4867, 4868, 4869
 4870, 4871, 4872, 4873, 4874, 4875, 4876, 4877, 4878, 4879, 4880, 4881, 4882, 4883, 4884, 4885
 4886, 4887, 4888, 4889, 4890, 4891, 4892, 4893, 4894, 4895, 4896, 4897, 4898, 4899, 4900, 4901
 4902, 4903, 4904, 4905, 4906, 4907, 4908, 4909, 4910, 4911, 4912, 4913, 4914, 4915, 4916, 4917
** ... 18 like lines cut
*Nset, nset=LeftPoint, instance=LeftRef-1
 1,
*Nset, nset=RightPoint, instance=RightRef-1
 1,
*Nset, nset=Top, instance=QuarterCell-1
   13,   16,   19,   20,   22,   24,   30,   31,   32,   34,  328,  329,  330,  331,  332,  360
  361,  362,  363,  364,  365,  366,  367,  368,  369,  370,  371,  372,  373,  374,  375,  376
  377,  378,  379,  380,  381,  382,  383,  384,  385,  386,  387,  388,  389,  390,  391,  392
  393,  394,  395,  396,  397,  398,  399,  400,  401,  402,  403,  404,  405,  406,  407,  408
  409,  410,  481,  482,  483,  484,  485,  486,  487,  488,  489,  490,  491,  492,  493,  518
  519,  520,  521,  522,  523,  524,  525,  526,  527,  528,  529,  530,  531,  532,  533,  534
  535,  536,  537,  538,  539,  540,  541,  542,  543,  544,  545,  546,  547,  548,  549,  550
  551,  552,  553,  723,  724,  725,  726,  727,  728,  729,  730,  739,  740,  741,  742,  743
  744,  745,  746,  747,  748,  749,  750,  751,  752,  753,  754,  755,  756,  757,  758,  759
  760,  761,  762,  763,  764,  765,  766,  767,  768,  769,  770,  771,  772,  773,  774,  775
  776,  777,  778,  779,  780,  781,  782,  783,  784,  832,  833,  834,  835,  836,  837,  838
  839,  852,  853,  854,  855,  879,  880,  881,  882, 2694, 2695, 2696, 2697, 2698, 2699, 2700
 2701, 2702, 2703, 2704, 2705, 2706, 2707, 2708, 2709, 2710, 2711, 2712, 2713, 2714, 2715, 2716
 2717, 2718, 2719, 2720, 2721, 2722, 2723, 2724, 2725, 2726, 2727, 2728, 2729, 2730, 2731, 2732
 2733, 2734, 2735, 2736, 2737, 2738, 2739, 2740, 2741, 2742, 2743, 2744, 2745, 2746, 2747, 2748
 2749, 2750, 2751, 2752, 2753, 2754, 2755, 2756, 2757, 2758, 2759, 2760, 2761, 2762, 2763, 2764
 2765, 2766, 2767, 2768, 2769, 2770, 2771, 2772, 2773, 2774, 2775, 2776, 2777, 2778, 2779, 2780
 2781, 2782, 2783, 2784, 2785, 2786, 2787, 2788, 2789, 2790, 2791, 2792, 2793, 2794, 2795, 2796
 2797, 2798, 2799, 2800, 2801, 2802, 2803, 2804, 2805, 2806, 2807, 2808, 4268, 4269, 4270, 4271
 4272, 4273, 4274, 4275, 4276, 4277, 4278, 4279, 4280, 4281, 4282, 4283, 4284, 4285, 4286, 4287
** ... 35 like lines cut
*Nset, nset=TopPoint, instance=TopRef-1
 1,
*Nset, nset="XY Plane", instance=QuarterCell-1
    1,    4,    7,    8,   25,   26,   29,   33,   35,   36,   64,   65,   66,   67,   68,   96
   97,   98,   99,  100,  101,  102,  103,  104,  105,  106,  107,  108,  109,  110,  111,  112
  113,  114,  115,  116,  117,  118,  119,  120,  121,  122,  123,  124,  125,  126,  127,  128
  129,  130,  131,  132,  133,  134,  135,  136,  137,  138,  139,  140,  141,  142,  143,  144
  145,  146,  588,  589,  590,  591,  592,  593,  594,  595,  596,  597,  598,  599,  600,  612
  613,  614,  615,  616,  617,  618,  619,  620,  621,  622,  623,  624,  625,  626,  627,  628
  629,  630,  631,  632,  633,  634,  635,  636,  637,  638,  639,  640,  641,  642,  643,  644
  645,  646,  647,  735,  736,  737,  738,  785,  786,  787,  788,  789,  790,  791,  792,  793
  794,  795,  796,  797,  798,  799,  800,  801,  802,  803,  804,  805,  806,  807,  824,  825
  826,  827,  840,  841,  842,  843,  844,  845,  846,  847,  856,  857,  858,  859,  860,  861
  862,  863,  864,  865,  866,  867,  868,  869,  870,  871,  872,  873,  874,  875,  876,  877
  878,  887,  888,  889,  890,  891,  892,  893,  894, 1005, 1006, 1007, 1008, 1009, 1010, 1011
 1012, 1013, 1014, 1015, 1016, 1017, 1018, 1019, 1020, 1021, 1022, 1023, 1024, 1025, 1026, 1027
 1028, 1029, 1030, 1031, 1032, 1033, 1034, 1035, 1036, 1037, 1038, 1039, 1040, 1041, 1042, 1043
 1044, 1045, 1046, 1047, 1048, 1049, 1050, 1051, 1052, 1053, 1054, 1055, 1056, 1057, 1058, 1059
 1060, 1061, 1062, 1063, 1064, 1065, 1066, 1067, 1068, 1069, 1070, 1071, 1072, 1073, 1074, 1075
 1076, 1077, 1078, 1079, 1080, 1081, 1082, 1083, 1084, 1085, 1086, 1087, 1088, 1089, 1090, 1091
 1092, 1093, 1094, 1095, 1096, 1097, 1098, 1099, 1100, 1101, 1102, 1103, 1104, 1105, 1106, 1107
 1108, 1109, 1110, 1111, 1112, 1113, 1114, 1115, 1116, 1117, 1118, 1119, 5106, 5107, 5108, 5109
 5110, 5111, 5112, 5113, 5114, 5115, 5116, 5117, 5118, 5119, 5120, 5121, 5122, 5123, 5124, 5125
** ... 35 like lines cut
*Nset, nset="XZ Plane", instance=QuarterCell-1
   21,   22,   23,   24,   27,   28,   35,   36,  470,  471,  472,  473,  474,  475,  476,  477
  478,  479,  480,  507,  508,  509,  510,  511,  512,  513,  514,  515,  516,  517,  531,  532
  533,  534,  535,  536,  537,  538,  539,  540,  541,  542,  543,  544,  545,  546,  547,  548
  549,  550,  551,  552,  553,  554,  555,  556,  557,  558,  559,  560,  561,  562,  563,  564
  565,  566,  567,  568,  569,  570,  571,  572,  573,  574,  575,  576,  648,  649,  650,  651
  652,  666,  667,  668,  669,  670,  684,  685,  686,  687,  688,  689,  690,  691,  692,  693
  694,  695,  696,  697,  698,  699,  700,  701,  702,  703,  704,  705,  706,  848,  849,  850
  851,  856,  857,  858,  859,  860,  861,  862,  863,  864,  865,  866,  867,  868,  869,  870
  871,  872,  873,  874,  875,  876,  877,  878,  883,  884,  885,  886, 3716, 3717, 3718, 3719
 3720, 3721, 3722, 3723, 3724, 3725, 3726, 3727, 3728, 3729, 3730, 3731, 3732, 3733, 3734, 3735
 3736, 3737, 3738, 3739, 3740, 3741, 3742, 3743, 3744, 3745, 3746, 3747, 3748, 3749, 3750, 3751
 3752, 3753, 3754, 3755, 3756, 3757, 3758, 3759, 3760, 3761, 3762, 3763, 3764, 3765, 3766, 3767
 3768, 3769, 3770, 3771, 3772, 3773, 3774, 3775, 3776, 3777, 3778, 3779, 3780, 3781, 3782, 3783
 3784, 3785, 3786, 3787, 3788, 3789, 3790, 3791, 3792, 3793, 3794, 3795, 3796, 3797, 3798, 3799
 3800, 3801, 3802, 3803, 3804, 3805, 3806, 3807, 3808, 3809, 3810, 3811, 3812, 3813, 3814, 3815
 3816, 3817, 3818, 3819, 3820, 3821, 3822, 3823, 3824, 3825, 3826, 3827, 3828, 3829, 3830, 3831
 3832, 3833, 3834, 3835, 3836, 3837, 3838, 3839, 3840, 3841, 3842, 3843, 3844, 3845, 3846, 3847
 3848, 3849, 3850, 3851, 3852, 3853, 3854, 3855, 3856, 3857, 3858, 3859, 3860, 3861, 3862, 3863
 3864, 3865, 3866, 3867, 3868, 3869, 3870, 3871, 3872, 3873, 3874, 3875, 3876, 3877, 3878, 3879
 3880, 3881, 3882, 3883, 3884, 3885, 3886, 3887, 3888, 3889, 3890, 3891, 3892, 3893, 3894, 3895
** ... 18 like lines cut
*Nset, nset="YZ Plane", instance=QuarterCell-1
    1,    2,    3,    4,    9,   10,   13,   14,   15,   16,   21,   22,   25,   28,   29,   30
   31,   35,   37,   38,   39,   40,   41,   42,   43,   44,   45,   46,   47,   48,   49,   50
   51,   52,   53,   54,   55,   56,   57,   58,   59,   60,   61,   62,   63,   64,   65,   66
   67,   68,  193,  194,  195,  196,  197,  198,  199,  200,  201,  202,  203,  204,  205,  206
  207,  208,  209,  210,  211,  212,  213,  214,  215,  216,  217,  218,  219,  220,  221,  222
  223,  301,  302,  303,  304,  305,  306,  307,  308,  309,  310,  311,  312,  313,  314,  315
  316,  317,  318,  319,  320,  321,  322,  323,  324,  325,  326,  327,  328,  329,  330,  331
  332,  457,  458,  459,  460,  461,  462,  463,  464,  465,  466,  467,  468,  469,  470,  471
  472,  473,  474,  475,  476,  477,  478,  479,  480,  481,  482,  483,  484,  485,  486,  487
  488,  489,  490,  491,  492,  493,  577,  578,  579,  580,  581,  582,  583,  584,  585,  586
  587,  588,  589,  590,  591,  592,  593,  594,  595,  596,  597,  598,  599,  600,  666,  667
  668,  669,  670,  671,  672,  673,  674,  675,  676,  677,  678,  679,  680,  681,  682,  683
  707,  708,  709,  710,  711,  712,  713,  714,  715,  716,  717,  718,  719,  720,  721,  722
  723,  724,  725,  726,  727,  728,  729,  730,  731,  732,  733,  734,  735,  736,  737,  738
  840,  841,  842,  843,  844,  845,  846,  847,  848,  849,  850,  851,  852,  853,  854,  855
  895,  896,  897,  898,  899,  900,  901,  902,  903,  904,  905,  906,  907,  908,  909,  910
  911,  912,  913,  914,  915,  916,  917,  918,  919,  920,  921,  922,  923,  924,  925,  926
  927,  928,  929,  930,  931,  932,  933,  934,  935,  936,  937,  938,  939,  940,  941,  942
  943,  944,  945,  946,  947,  948,  949, 1741, 1742, 1743, 1744, 1745, 1746, 1747, 1748, 1749
 1750, 1751, 1752, 1753, 1754, 1755, 1756, 1757, 1758, 1759, 1760, 1761, 1762, 1763, 1764, 1765
** ... 41 like lines cut
** Constraint: FrontFacePlanar
*Equation
2
Front, 1, 1.
FrontPoint, 1, -1.
** Constraint: LeftFacePlanar
*Equation
2
Left, 2, 1.
LeftPoint, 2, -1.
** Constraint: TopFacePlanar
*Equation
2
Top, 3, 1.
TopPoint, 3, -1.
*End Assembly
** 
** MATERIALS
** 
*Material, name=FIBERMATERIAL
*Elastic, type=ENGINEERING CONSTANTS
235000.,14000.,14000.,   0.2,   0.2,  0.25,28000.,28000.
 5600.,
*Material, name=MATRIXMATERIAL
*Elastic
48000., 0.34
** 
** BOUNDARY CONDITIONS
** 
** Name: X-Symm Type: Symmetry/Antisymmetry/Encastre
*Boundary
"YZ Plane", XSYMM
** Name: Y-Symm Type: Symmetry/Antisymmetry/Encastre
*Boundary
"XZ Plane", YSYMM
** Name: Z-Symm Type: Symmetry/Antisymmetry/Encastre
*Boundary
"XY Plane", ZSYMM
** ----------------------------------------------------------------
** 
** STEP: Step-1
** 
*Step, name=Step-1, nlgeom=NO, inc=1000
*Static
1., 1., 1e-08, 1.
** 
** LOADS
** 
** Name: LeftLoad   Type: Concentrated force
*Cload
LeftPoint, 2, 0.02
** 
** OUTPUT REQUESTS
** 
*Restart, write, frequency=0
** 
** FIELD OUTPUT: F-Output-1
** 
*Output, field, variable=PRESELECT, frequency=99999
** 
** HISTORY OUTPUT: H-Output-1
** 
*Output, history, frequency=99999
*Node Output, nset=FrontPoint
U1, 
** 
** HISTORY OUTPUT: H-Output-2
** 
*Node Output, nset=LeftPoint
U2, 
** 
** HISTORY OUTPUT: H-Output-3
** 
*Node Output, nset=TopPoint
U3, 
*End Step
